data/projects/lehigh2mgs/circuit_plus_mgAll.dss
clear
set defaultbasefrequency=60
new object=circuit.lehigh basekv=115 pu=1.0001 phases=3 bus1=sourcebus angle=30 mvasc3=20000 mvasc1=21000
edit object=vsource.source basekv=115 bus1=sourcebus.1.2.3 pu=1.00 r1=0 x1=0.0001 r0=0 x0=0.0001
new object=vsource.secondsource basekv=4.16 bus1=680.1.2.3 pu=1.00 r1=0 x1=0.0001 r0=0 x0=0.0001
new object=transformer.sub phases=3 windings=2 xhl=0.008 buses=[sourcebus.1.2.3,650.1.2.3] conns=[delta,wye] kvs=[115,4.16] kvas=[5000,5000] %rs=[0.0005,0.0005]
new object=transformer.reg1 phases=1 bank=reg1 xhl=0.01 kvas=[1666,1666] buses=[650.1,rg60.1] kvs=[2.4,2.4] %loadloss=0.01
new object=regcontrol.reg1 transformer=reg1 winding=2 vreg=121 band=2 ptratio=20 ctprim=700 r=3 x=9
new object=transformer.reg2 phases=1 bank=reg1 xhl=0.01 kvas=[1666,1666] buses=[650.2,rg60.2] kvs=[2.4,2.4] %loadloss=0.01
new object=regcontrol.reg2 transformer=reg2 winding=2 vreg=121 band=2 ptratio=20 ctprim=700 r=3 x=9
new object=transformer.reg3 phases=1 bank=reg1 xhl=0.01 kvas=[1666,1666] buses=[650.3,rg60.3] kvs=[2.4,2.4] %loadloss=0.01
new object=regcontrol.reg3 transformer=reg3 winding=2 vreg=121 band=2 ptratio=20 ctprim=700 r=3 x=9
new object=transformer.xfm1 phases=3 windings=2 xhl=2 buses=[633.1.2.3,634.1.2.3] conns=[wye,wye] kvs=[4.16,0.480] kvas=[500,500] %rs=[0.55,0.55] xht=1 xlt=1
new object=linecode.mtx601 nphases=3 basefreq=60 rmatrix=[0.3465|0.1560,0.3375|0.1580,0.1535,0.3414] xmatrix=[1.0179|0.5017,1.0478|0.4236,0.3849,1.0348] units=mi
new object=linecode.mtx602 nphases=3 basefreq=60 rmatrix=[0.7526|0.1580,0.7475|0.1560,0.1535,0.7436] xmatrix=[1.1814|0.4236,1.1983|0.5017,0.3849,1.2112] units=mi
new object=linecode.mtx603 nphases=2 basefreq=60 rmatrix=[1.3238|0.2066,1.3294] xmatrix=[1.3569|0.4591,1.3471] units=mi
new object=linecode.mtx604 nphases=2 basefreq=60 rmatrix=[1.3238|0.2066,1.3294] xmatrix=[1.3569|0.4591,1.3471] units=mi
new object=linecode.mtx605 nphases=1 basefreq=60 rmatrix=[1.3292] xmatrix=[1.3475] units=mi
new object=linecode.mtx606 nphases=3 units=mi rmatrix=[0.791721|0.318476,0.781649|0.28345,0.318476,0.791721] xmatrix=[0.438352|0.0276838,0.396697|-0.0184204,0.0276838,0.438352] cmatrix=[383.948|0,383.948|0,0,383.948]
new object=linecode.mtx607 nphases=1 basefreq=60 rmatrix=[1.3425] xmatrix=[0.5124] cmatrix=[236] units=mi
new object=loadshape.solar_634_shape npts=8760 interval=1 useactual=yes mult=[0.0,0.0,0.0,0.0,0.0,0.0,0.0,0.0,175.206,407.874,561.74,646.421,679.706,654.55,579.716,450.128,243.857,16.289,0.0,0.0,0.0,0.0,0.0,0.0,0.0,0.0,0.0,0.0,0.0,0.0,0.0,0.0,64.726,216.759,371.66,458.594,531.929,625.685,380.427,413.204,209.74400000000003,7.421,0.0,0.0,0.0,0.0,0.0,0.0,0.0,0.0,0.0,0.0,0.0,0.0,0.0,0.0,82.153,360.042,511.752,602.327,638.908,615.8970000000002,309.069,347.689,169.172,6.736,0.0,0.0,0.0,0.0,0.0,0.0,0.0,0.0,0.0,0.0,0.0,0.0,0.0,0.0,122.143,360.359,521.582,450.914,367.715,240.633,563.862,261.434,142.157,5.459,0.0,0.0,0.0,0.0,0.0,0.0,0.0,0.0,0.0,0.0,0.0,0.0,0.0,0.0,79.822,271.201,342.773,451.669,437.8140000000001,362.409,368.387,281.181,136.102,10.953,0.0,0.0,0.0,0.0,0.0,0.0,0.0,0.0,0.0,0.0,0.0,0.0,0.0,0.0,65.74,86.633,230.79800000000003,139.782,293.985,312.265,258.67,139.062,94.507,16.466,0.0,0.0,0.0,0.0,0.0,0.0,0.0,0.0,0.0,0.0,0.0,0.0,0.0,0.0,191.21600000000004,446.954,626.193,731.177,768.333,744.6039999999999,664.561,523.185,297.676,30.873000000000005,0.0,0.0,0.0,0.0,0.0,0.0,0.0,0.0,0.0,0.0,0.0,0.0,0.0,0.0,53.21,315.195,429.345,461.4479999999999,298.155,303.57,335.523,203.4,135.366,7.021,0.0,0.0,0.0,0.0,0.0,0.0,0.0,0.0,0.0,0.0,0.0,0.0,0.0,0.0,4.688,9.359,33.13,124.407,162.187,115.826,49.53,24.764,56.623,1.153,0.0,0.0,0.0,0.0,0.0,0.0,0.0,0.0,0.0,0.0,0.0,0.0,0.0,0.0,3.146,82.459,90.766,93.491,107.46,170.639,252.759,187.956,71.619,3.036,0.0,0.0,0.0,0.0,0.0,0.0,0.0,0.0,0.0,0.0,0.0,0.0,0.0,0.0,170.26199999999997,418.745,593.293,697.549,737.4669999999999,717.484,640.585,508.433,293.866,35.75,0.0,0.0,0.0,0.0,0.0,0.0,0.0,0.0,0.0,0.0,0.0,0.0,0.0,0.0,177.048,421.256,588.572,689.684,639.422,603.495,635.669,501.211,291.142,39.418,0.0,0.0,0.0,0.0,0.0,0.0,0.0,0.0,0.0,0.0,0.0,0.0,0.0,0.0,76.189,247.847,469.635,495.9,542.411,592.902,502.228,408.38,263.534,36.958,0.0,0.0,0.0,0.0,0.0,0.0,0.0,0.0,0.0,0.0,0.0,0.0,0.0,0.0,79.026,324.357,338.7679999999999,644.386,689.8719999999998,675.345,604.185,474.16,259.259,38.776,0.0,0.0,0.0,0.0,0.0,0.0,0.0,0.0,0.0,0.0,0.0,0.0,0.0,0.0,91.744,232.084,379.644,409.755,445.289,428.439,343.828,221.55,202.486,34.499,0.0,0.0,0.0,0.0,0.0,0.0,0.0,0.0,0.0,0.0,0.0,0.0,0.0,0.0,70.635,334.991,582.263,679.474,719.6150000000001,702.962,629.757,373.178,300.115,56.172,0.0,0.0,0.0,0.0,0.0,0.0,0.0,0.0,0.0,0.0,0.0,0.0,0.0,0.0,9.314,221.04100000000005,207.187,212.197,308.959,497.926,251.846,183.576,23.913,0.377,0.0,0.0,0.0,0.0,0.0,0.0,0.0,0.0,0.0,0.0,0.0,0.0,0.0,0.0,120.632,134.02,70.879,87.707,697.897,682.227,337.133,484.261,285.591,56.821,0.0,0.0,0.0,0.0,0.0,0.0,0.0,0.0,0.0,0.0,0.0,0.0,0.0,0.0,0.0,61.647,232.114,616.604,667.606,250.93,165.221,191.787,71.779,59.289,0.0,0.0,0.0,0.0,0.0,0.0,0.0,0.0,0.0,0.0,0.0,0.0,0.0,0.0,187.402,443.319,613.852,711.662,747.2149999999999,730.908,663.709,534.702,323.181,72.613,0.0,0.0,0.0,0.0,0.0,0.0,0.0,0.0,0.0,0.0,0.0,0.0,0.0,0.0,54.79,146.601,383.5630000000001,677.551,724.877,716.208,650.019,521.667,319.7130000000001,74.231,0.0,0.0,0.0,0.0,0.0,0.0,0.0,0.0,0.0,0.0,0.0,0.0,0.0,0.0,182.692,425.116,595.362,703.618,749.08,733.229,660.56,527.286,319.47400000000005,75.307,0.0,0.0,0.0,0.0,0.0,0.0,0.0,0.0,0.0,0.0,0.0,0.0,0.0,0.0,180.638,430.673,611.369,723.321,770.215,753.7760000000001,681.614,549.309,342.036,86.19799999999998,0.0,0.0,0.0,0.0,0.0,0.0,0.0,0.0,0.0,0.0,0.0,0.0,0.0,0.0,49.453,170.047,567.25,470.793,712.5390000000001,588.647,621.061,428.222,266.545,57.084,0.0,0.0,0.0,0.0,0.0,0.0,0.0,0.0,0.0,0.0,0.0,0.0,0.0,0.0,51.342,304.821,331.215,501.695,716.895,709.262,532.584,498.189,290.108,65.842,0.0,0.0,0.0,0.0,0.0,0.0,0.0,0.0,0.0,0.0,0.0,0.0,0.0,0.0,102.269,204.143,326.436,251.741,133.694,39.933,115.668,221.672,90.553,29.826,0.0,0.0,0.0,0.0,0.0,0.0,0.0,0.0,0.0,0.0,0.0,0.0,0.0,0.0,152.053,274.206,188.07900000000004,555.963,759.78,759.6190000000001,696.0099999999999,565.497,353.062,97.884,0.0,0.0,0.0,0.0,0.0,0.0,0.0,0.0,0.0,0.0,0.0,0.0,0.0,0.0,212.489,483.846,667.946,776.908,816.604,797.559,717.72,583.534,374.032,108.829,0.0,0.0,0.0,0.0,0.0,0.0,0.0,0.0,0.0,0.0,0.0,0.0,0.0,0.0,108.141,453.027,501.786,560.755,563.733,590.108,506.1,366.131,220.934,94.176,0.0,0.0,0.0,0.0,0.0,0.0,0.0,0.0,0.0,0.0,0.0,0.0,0.0,0.0,21.444,103.482,127.223,357.19,381.0810000000001,201.157,158.78899999999996,88.507,187.58900000000003,43.417,0.0,0.0,0.0,0.0,0.0,0.0,0.0,0.0,0.0,0.0,0.0,0.0,0.0,0.0,34.048,220.859,439.827,413.58,353.73,430.998,399.511,336.606,103.638,8.117,0.0,0.0,0.0,0.0,0.0,0.0,0.0,0.0,0.0,0.0,0.0,0.0,0.0,0.0,172.344,402.684,125.728,185.121,276.704,375.042,291.283,512.536,328.262,98.075,0.0,0.0,0.0,0.0,0.0,0.0,0.0,0.0,0.0,0.0,0.0,0.0,0.0,0.0,53.129,153.55199999999996,172.794,236.87700000000004,520.246,456.869,425.5,221.41000000000005,137.302,94.938,0.0,0.0,0.0,0.0,0.0,0.0,0.0,0.0,0.0,0.0,0.0,0.0,0.0,0.0,182.882,412.34,81.50699999999999,140.256,145.516,161.06,178.463,127.452,34.283,29.167,0.0,0.0,0.0,0.0,0.0,0.0,0.0,0.0,0.0,0.0,0.0,0.0,0.0,0.0,183.072,105.751,271.238,429.206,724.826,716.366,648.422,516.208,324.54100000000005,100.41,0.0,0.0,0.0,0.0,0.0,0.0,0.0,0.0,0.0,0.0,0.0,0.0,0.0,0.0,49.288,18.624,563.28,669.542,716.832,351.69,651.108,531.093,346.909,111.252,0.0,0.0,0.0,0.0,0.0,0.0,0.0,0.0,0.0,0.0,0.0,0.0,0.0,0.0,73.065,282.887,389.151,381.92,140.825,137.307,221.335,3.934,50.477,9.244,0.0,0.0,0.0,0.0,0.0,0.0,0.0,0.0,0.0,0.0,0.0,0.0,0.0,0.0,190.755,435.395,606.865,714.4229999999999,764.072,753.778,683.091,559.932,363.925,120.534,0.0,0.0,0.0,0.0,0.0,0.0,0.0,0.0,0.0,0.0,0.0,0.0,0.0,0.0,15.116,99.498,403.763,480.711,591.318,374.867,490.439,550.239,365.80500000000006,125.099,0.0,0.0,0.0,0.0,0.0,0.0,0.0,0.0,0.0,0.0,0.0,0.0,0.0,0.0,210.642,215.971,284.211,713.423,758.586,470.907,675.424,557.207,373.929,130.061,0.0,0.0,0.0,0.0,0.0,0.0,0.0,0.0,0.0,0.0,0.0,0.0,0.0,1.898,205.198,441.17,601.751,701.624,739.271,733.489,657.976,529.174,338.9580000000001,112.722,0.0,0.0,0.0,0.0,0.0,0.0,0.0,0.0,0.0,0.0,0.0,0.0,0.0,1.838,70.504,155.092,206.195,316.96899999999994,726.47,715.375,650.188,532.68,191.335,71.588,0.0,0.0,0.0,0.0,0.0,0.0,0.0,0.0,0.0,0.0,0.0,0.0,0.0,0.0,0.0,8.594,40.037,61.099,133.211,161.128,104.107,88.768,69.288,28.106,0.0,0.0,0.0,0.0,0.0,0.0,0.0,0.0,0.0,0.0,0.0,0.0,0.0,2.128,2.418,118.616,227.388,579.131,828.282,823.602,750.403,618.579,416.437,152.171,0.0,0.0,0.0,0.0,0.0,0.0,0.0,0.0,0.0,0.0,0.0,0.0,0.0,7.152,240.163,488.124,651.252,758.2339999999999,808.078,796.493,727.66,455.622,395.516,142.822,0.0,0.0,0.0,0.0,0.0,0.0,0.0,0.0,0.0,0.0,0.0,0.0,0.0,8.27,247.6,506.454,679.334,787.153,833.3679999999999,817.058,742.9620000000001,608.839,414.163,156.631,0.0,0.0,0.0,0.0,0.0,0.0,0.0,0.0,0.0,0.0,0.0,0.0,0.0,9.544,245.664,488.606,648.838,747.717,789.387,775.109,708.388,585.48,396.085,150.239,0.0,0.0,0.0,0.0,0.0,0.0,0.0,0.0,0.0,0.0,0.0,0.0,0.0,8.387,230.505,470.574,631.303,734.245,778.068,762.423,699.755,569.769,377.816,127.39499999999998,0.0,0.0,0.0,0.0,0.0,0.0,0.0,0.0,0.0,0.0,0.0,0.0,0.0,6.749,207.137,430.742,360.0489999999999,403.507,516.553,723.133,579.228,421.947,315.485,102.041,0.0,0.0,0.0,0.0,0.0,0.0,0.0,0.0,0.0,0.0,0.0,0.0,0.0,9.077,224.255,457.9220000000001,617.462,715.825,753.835,755.916,683.563,426.531,372.492,141.957,0.0,0.0,0.0,0.0,0.0,0.0,0.0,0.0,0.0,0.0,0.0,0.0,0.0,11.742,235.861,466.612,630.128,728.933,568.123,461.119,392.387,563.342,196.083,142.812,0.0,0.0,0.0,0.0,0.0,0.0,0.0,0.0,0.0,0.0,0.0,0.0,0.0,0.0,4.545,19.543,45.474,215.716,368.848,247.132,224.665,545.157,160.964,140.427,0.0,0.0,0.0,0.0,0.0,0.0,0.0,0.0,0.0,0.0,0.0,0.0,0.0,14.384,247.689,488.526,648.4839999999999,747.027,782.643,765.052,701.239,581.266,401.402,106.598,0.0,0.0,0.0,0.0,0.0,0.0,0.0,0.0,0.0,0.0,0.0,0.0,0.0,0.0,0.0,63.041,198.862,299.011,133.817,83.533,115.024,132.666,57.415,50.354,0.0,0.0,0.0,0.0,0.0,0.0,0.0,0.0,0.0,0.0,0.0,0.0,0.0,15.956,22.768,70.698,89.647,383.167,496.282,557.152,257.656,234.083,371.4700000000001,88.572,0.0,0.0,0.0,0.0,0.0,0.0,0.0,0.0,0.0,0.0,0.0,0.0,0.0,19.790000000000003,240.485,395.894,621.5339999999999,718.1240000000001,754.102,741.898,684.01,146.716,386.294,153.744,0.0,0.0,0.0,0.0,0.0,0.0,0.0,0.0,0.0,0.0,0.0,0.0,0.0,0.0,20.0,90.446,116.165,160.101,174.31099999999998,110.912,221.369,138.689,130.806,63.864,0.0,0.0,0.0,0.0,0.0,0.0,0.0,0.0,0.0,0.0,0.0,0.0,0.0,28.829,212.394,408.357,721.947,827.84,755.688,675.931,584.116,464.216,278.217,71.13,0.0,0.0,0.0,0.0,0.0,0.0,0.0,0.0,0.0,0.0,0.0,0.0,0.0,43.405,310.902,551.96,702.106,788.053,824.913,809.8850000000001,740.653,621.336,441.626,186.644,0.0,0.0,0.0,0.0,0.0,0.0,0.0,0.0,0.0,0.0,0.0,0.0,0.0,6.085999999999999,64.365,166.153,250.641,193.684,231.248,601.705,339.124,505.461,400.604,165.781,0.595,0.0,0.0,0.0,0.0,0.0,0.0,0.0,0.0,0.0,0.0,0.0,0.0,49.272,299.855,541.726,699.313,788.845,828.934,812.97,721.454,584.421,400.203,148.574,0.26,0.0,0.0,0.0,0.0,0.0,0.0,0.0,0.0,0.0,0.0,0.0,0.0,51.188,323.554,566.16,725.694,817.977,851.867,835.6990000000001,755.9630000000001,622.955,433.497,185.24,1.5709999999999995,0.0,0.0,0.0,0.0,0.0,0.0,0.0,0.0,0.0,0.0,0.0,0.0,55.987,314.64200000000005,556.353,716.465,812.232,850.612,828.6369999999998,759.2479999999999,635.983,450.12700000000007,196.722,3.557,0.0,0.0,0.0,0.0,0.0,0.0,0.0,0.0,0.0,0.0,0.0,0.0,33.747,286.99,515.03,390.59,390.394,621.869,738.296,635.359,556.928,426.455,185.614,2.786,0.0,0.0,0.0,0.0,0.0,0.0,0.0,0.0,0.0,0.0,0.0,0.0,21.92,187.378,194.069,169.701,181.77500000000003,119.493,281.4,92.817,141.895,60.933,7.987,0.0,0.0,0.0,0.0,0.0,0.0,0.0,0.0,0.0,0.0,0.0,0.0,0.0,56.314,235.541,540.376,720.539,763.914,850.1310000000001,724.688,669.928,526.021,368.6,88.023,0.0,0.0,0.0,0.0,0.0,0.0,0.0,0.0,0.0,0.0,0.0,0.0,0.0,45.926,337.847,579.495,744.077,846.931,888.884,872.43,796.8679999999999,667.927,478.143,198.44700000000003,2.252,0.0,0.0,0.0,0.0,0.0,0.0,0.0,0.0,0.0,0.0,0.0,0.0,51.955,336.98999999999995,564.969,707.8989999999999,792.503,820.808,809.743,743.753,613.696,447.0,199.986,4.934,0.0,0.0,0.0,0.0,0.0,0.0,0.0,0.0,0.0,0.0,0.0,0.0,49.255,281.282,389.142,526.915,541.539,556.078,528.134,413.959,415.614,362.4479999999999,145.237,3.219,0.0,0.0,0.0,0.0,0.0,0.0,0.0,0.0,0.0,0.0,0.0,0.0,39.961,164.774,291.312,653.0619999999999,619.458,516.604,389.348,411.786,286.613,190.12,90.864,0.0,0.0,0.0,0.0,0.0,0.0,0.0,0.0,0.0,0.0,0.0,0.0,0.0,25.449,219.671,455.359,408.729,854.272,878.444,889.233,811.566,678.0970000000001,479.605,215.16,7.078,0.0,0.0,0.0,0.0,0.0,0.0,0.0,0.0,0.0,0.0,0.0,0.0,69.509,362.075,594.609,746.707,831.098,864.2369999999999,845.247,756.035,639.24,459.341,209.515,7.011000000000001,0.0,0.0,0.0,0.0,0.0,0.0,0.0,0.0,0.0,0.0,0.0,0.0,95.997,368.234,603.344,758.255,850.037,884.131,865.826,786.5980000000001,650.851,461.732,210.803,7.005,0.0,0.0,0.0,0.0,0.0,0.0,0.0,0.0,0.0,0.0,0.0,0.0,86.782,370.975,591.718,736.467,829.3190000000001,868.35,859.142,792.484,664.773,480.972,223.638,8.303,0.0,0.0,0.0,0.0,0.0,0.0,0.0,0.0,0.0,0.0,0.0,0.0,87.318,347.53200000000004,556.411,693.333,774.352,810.442,795.939,652.276,229.647,205.282,49.475,1.28,0.0,0.0,0.0,0.0,0.0,0.0,0.0,0.0,0.0,0.0,0.0,0.0,15.888,191.21,290.523,234.178,374.276,419.883,606.504,718.241,468.955,373.081,180.08699999999996,6.738,0.0,0.0,0.0,0.0,0.0,0.0,0.0,0.0,0.0,0.0,0.0,0.0,9.485,46.607,105.157,490.179,518.18,510.881,494.629,475.457,458.788,342.296,10.468,0.0,0.0,0.0,0.0,0.0,0.0,0.0,0.0,0.0,0.0,0.0,0.0,0.0,91.333,110.004,78.17999999999999,194.719,390.066,56.641,52.539,195.508,92.868,241.83600000000004,115.06399999999998,8.666,0.0,0.0,0.0,0.0,0.0,0.0,0.0,0.0,0.0,0.0,0.0,0.0,88.49499999999999,164.638,206.792,405.876,609.812,680.859,682.469,693.794,628.6629999999999,469.343,218.723,9.304,0.0,0.0,0.0,0.0,0.0,0.0,0.0,0.0,0.0,0.0,0.0,0.0,116.952,381.06200000000007,609.446,768.717,870.752,911.564,893.804,816.998,681.4269999999999,492.27199999999993,230.71,11.697,0.0,0.0,0.0,0.0,0.0,0.0,0.0,0.0,0.0,0.0,0.0,0.0,127.494,405.253,631.677,784.569,876.241,907.676,885.1099999999999,804.94,672.476,486.495,229.757,11.212,0.0,0.0,0.0,0.0,0.0,0.0,0.0,0.0,0.0,0.0,0.0,0.0,121.592,373.25200000000007,582.057,723.969,800.165,824.2560000000001,803.63,703.5410000000002,618.723,371.503,175.237,9.807,0.0,0.0,0.0,0.0,0.0,0.0,0.0,0.0,0.0,0.0,0.0,0.0,71.799,249.2,556.618,653.595,805.322,836.177,811.641,738.62,623.606,457.142,217.858,11.119,0.0,0.0,0.0,0.0,0.0,0.0,0.0,0.0,0.0,0.0,0.0,0.0,73.429,208.178,232.1,320.745,380.581,381.899,198.073,287.69,208.478,87.464,157.72800000000004,10.016,0.0,0.0,0.0,0.0,0.0,0.0,0.0,0.0,0.0,0.0,0.0,0.0,44.472,23.789,133.191,159.508,223.003,356.87100000000004,423.459,342.268,218.138,150.255,45.847,0.0,0.0,0.0,0.0,0.0,0.0,0.0,0.0,0.0,0.0,0.0,0.0,0.0,100.993,133.245,449.497,708.606,786.804,383.338,347.106,344.801,311.283,209.234,30.15,12.537,0.0,0.0,0.0,0.0,0.0,0.0,0.0,0.0,0.0,0.0,0.0,0.0,130.641,386.934,587.692,720.219,800.193,831.422,808.647,741.693,620.616,452.104,220.726,17.588,0.0,0.0,0.0,0.0,0.0,0.0,0.0,0.0,0.0,0.0,0.0,0.0,56.075,374.208,582.372,585.728,728.598,633.0600000000001,820.8360000000001,332.13499999999993,488.34,233.072,132.571,18.746,0.0,0.0,0.0,0.0,0.0,0.0,0.0,0.0,0.0,0.0,0.0,0.0,4.408,18.587,35.342,261.05,109.224,63.838,459.286,107.933,134.144,104.864,82.83699999999999,10.368000000000002,0.0,0.0,0.0,0.0,0.0,0.0,0.0,0.0,0.0,0.0,0.0,0.0,75.833,246.257,494.742,651.006,836.745,872.712,846.098,774.526,649.6039999999999,475.121,235.006,22.643,0.0,0.0,0.0,0.0,0.0,0.0,0.0,0.0,0.0,0.0,0.0,0.0,7.839,7.779,108.941,107.386,262.986,183.671,372.133,157.781,123.948,104.364,51.17399999999999,1.378,0.0,0.0,0.0,0.0,0.0,0.0,0.0,0.0,0.0,0.0,0.0,0.0,138.659,210.072,570.608,715.609,811.909,854.099,548.199,531.005,654.8940000000001,391.312,235.74000000000004,22.509,0.0,0.0,0.0,0.0,0.0,0.0,0.0,0.0,0.0,0.0,0.0,0.0,170.94899999999998,441.631,650.2020000000001,797.266,878.123,899.335,871.314,792.783,663.94,486.127,242.67,23.561,0.0,0.0,0.0,0.0,0.0,0.0,0.0,0.0,0.0,0.0,0.0,0.684,168.168,423.268,618.032,754.635,834.486,858.141,840.343,762.8729999999999,634.722,462.516,229.641,23.928000000000004,0.0,0.0,0.0,0.0,0.0,0.0,0.0,0.0,0.0,0.0,0.0,0.132,160.813,405.462,607.49,756.805,845.398,881.448,862.139,785.805,659.341,479.151,238.643,26.267,0.0,0.0,0.0,0.0,0.0,0.0,0.0,0.0,0.0,0.0,0.0,1.772,164.912,312.491,533.537,616.106,814.874,673.894,663.686,617.227,472.315,336.834,171.272,22.425,0.0,0.0,0.0,0.0,0.0,0.0,0.0,0.0,0.0,0.0,0.0,1.708,165.32600000000002,412.089,607.962,740.998,822.791,857.617,844.373,774.304,422.6290000000001,473.301,235.219,27.322,0.0,0.0,0.0,0.0,0.0,0.0,0.0,0.0,0.0,0.0,0.0,2.342,167.351,406.483,595.024,736.186,825.675,871.674,870.282,802.3320000000001,678.094,500.295,251.67,29.645,0.0,0.0,0.0,0.0,0.0,0.0,0.0,0.0,0.0,0.0,0.0,2.924,191.072,451.196,648.505,788.61,872.225,901.345,872.5699999999999,793.148,662.82,480.115,241.276,30.431,0.0,0.0,0.0,0.0,0.0,0.0,0.0,0.0,0.0,0.0,0.0,2.931,127.329,289.266,482.178,769.953,852.063,876.409,850.1610000000001,772.815,653.709,479.091,244.759,31.346,0.0,0.0,0.0,0.0,0.0,0.0,0.0,0.0,0.0,0.0,0.0,4.363,178.403,417.03600000000006,603.261,735.338,807.772,826.372,802.281,627.88,606.305,439.903,224.051,32.292,0.0,0.0,0.0,0.0,0.0,0.0,0.0,0.0,0.0,0.0,0.0,3.985,58.581,288.106,190.53,451.157,578.429,577.459,697.4100000000001,294.333,177.576,294.692,117.14,30.565,0.0,0.0,0.0,0.0,0.0,0.0,0.0,0.0,0.0,0.0,0.0,5.371,175.417,403.368,376.281,489.896,549.415,344.618,387.205,207.398,153.30999999999997,35.298,26.81,0.667,0.0,0.0,0.0,0.0,0.0,0.0,0.0,0.0,0.0,0.0,0.0,5.721,28.165,34.324,101.513,203.362,203.256,230.563,318.7,131.195,160.131,104.481,46.765,4.89,0.0,0.0,0.0,0.0,0.0,0.0,0.0,0.0,0.0,0.0,0.0,8.275,29.272,91.883,180.56800000000004,249.124,216.811,219.569,351.323,375.863,400.493,192.061,47.078,36.575,0.0,0.0,0.0,0.0,0.0,0.0,0.0,0.0,0.0,0.0,0.0,10.039,123.73399999999998,185.03100000000003,257.368,265.021,404.849,490.229,515.093,596.198,619.404,444.063,224.057,37.97,0.0,0.0,0.0,0.0,0.0,0.0,0.0,0.0,0.0,0.0,0.0,13.941,200.034,442.725,630.1389999999999,764.6290000000001,847.491,874.196,857.02,785.53,660.361,484.863,250.292,37.876,0.0,0.0,0.0,0.0,0.0,0.0,0.0,0.0,0.0,0.0,0.0,15.408,218.823,469.975,654.127,778.842,848.174,867.064,844.181,765.9530000000001,636.209,461.421,238.625,37.983,0.0,0.0,0.0,0.0,0.0,0.0,0.0,0.0,0.0,0.0,0.0,16.83,218.033,462.539,637.219,765.205,833.196,845.564,811.5109999999999,747.558,636.703,470.09,246.199,39.402,0.0,0.0,0.0,0.0,0.0,0.0,0.0,0.0,0.0,0.0,0.0,19.773,204.665,431.901,602.683,636.78,796.087,698.543,795.199,608.956,397.269,448.8140000000001,229.469,41.299,0.0,0.0,0.0,0.0,0.0,0.0,0.0,0.0,0.0,0.0,0.0,14.994000000000002,118.691,321.866,315.789,390.025,545.428,839.878,808.941,409.905,342.09,301.799,128.103,28.675,0.0,0.0,0.0,0.0,0.0,0.0,0.0,0.0,0.0,0.0,0.0,23.53,142.075,422.183,522.996,626.7030000000001,104.65999999999998,184.503,209.99,50.251,195.064,98.812,130.627,40.511,0.0,0.0,0.0,0.0,0.0,0.0,0.0,0.0,0.0,0.0,0.0,23.061000000000003,211.157,172.106,196.779,747.673,826.441,853.814,415.064,765.3249999999999,644.454,474.799,249.3,40.961,0.0,0.0,0.0,0.0,0.0,0.0,0.0,0.0,0.0,0.0,0.0,24.636,222.243,456.734,624.097,745.3690000000001,815.27,836.885,816.675,747.86,632.4619999999999,465.326,244.052,42.635,0.0,0.0,0.0,0.0,0.0,0.0,0.0,0.0,0.0,0.0,0.0,19.302,123.489,300.906,595.451,614.72,642.08,814.5170000000002,701.015,721.178,607.867,446.568,235.105,43.865,0.0,0.0,0.0,0.0,0.0,0.0,0.0,0.0,0.0,0.0,0.0,28.193,212.372,433.834,480.04300000000006,545.236,779.776,804.444,784.603,718.598,609.05,446.161,237.06,44.926,0.0,0.0,0.0,0.0,0.0,0.0,0.0,0.0,0.0,0.0,0.0,29.802,214.446,435.56,605.186,727.073,796.216,824.428,803.077,729.858,493.703,425.948,212.661,43.777,0.0,0.0,0.0,0.0,0.0,0.0,0.0,0.0,0.0,0.0,0.0,32.031,205.024,333.6530000000001,472.321,551.832,580.779,518.79,182.851,85.742,38.463,248.902,89.029,19.412,0.0,0.0,0.0,0.0,0.0,0.0,0.0,0.0,0.0,0.0,0.0,32.762,211.039,425.886,588.244,701.714,613.4290000000001,770.067,619.7030000000001,443.132,590.938,438.02,234.087,46.542,0.0,0.0,0.0,0.0,0.0,0.0,0.0,0.0,0.0,0.0,0.0,30.716,176.847,373.551,537.906,587.729,602.935,683.745,780.152,709.2609999999999,525.543,397.2339999999999,170.942,40.61,0.0,0.0,0.0,0.0,0.0,0.0,0.0,0.0,0.0,0.0,0.0,35.217,207.432,361.149,422.459,617.0310000000001,716.0350000000001,813.774,792.97,727.1530000000001,610.854,421.342,243.771,50.106,0.0,0.0,0.0,0.0,0.0,0.0,0.0,0.0,0.0,0.0,0.0,37.169,202.965,289.976,515.086,590.169,554.009,636.785,783.1630000000001,595.016,607.563,452.444,246.189,50.535,0.0,0.0,0.0,0.0,0.0,0.0,0.0,0.0,0.0,0.0,0.0,38.101,221.882,242.849,599.301,439.7780000000001,551.375,486.37299999999993,464.2819999999999,24.719999999999995,99.769,4.905,242.796,50.53,0.0,0.0,0.0,0.0,0.0,0.0,0.0,0.0,0.0,0.0,0.0,41.78,87.07800000000002,335.478,473.466,326.453,807.92,835.852,824.291,761.039,649.964,250.058,265.301,55.127,0.0,0.0,0.0,0.0,0.0,0.0,0.0,0.0,0.0,0.0,0.0,43.152,252.572,494.411,680.1179999999999,813.666,891.945,918.422,889.99,814.0159999999998,684.828,511.408,277.531,55.711000000000006,0.0,0.0,0.0,0.0,0.0,0.0,0.0,0.0,0.0,0.0,0.0,44.662,265.934,505.595,677.542,802.012,867.5969999999999,887.449,870.206,786.3559999999999,661.178,486.0,262.161,58.73,0.0,0.0,0.0,0.0,0.0,0.0,0.0,0.0,0.0,0.0,0.0,48.857,250.347,476.902,652.505,783.15,856.531,874.964,851.817,772.705,653.992,484.276,264.513,57.341,0.0,0.0,0.0,0.0,0.0,0.0,0.0,0.0,0.0,0.0,0.0,45.732,249.483,468.188,625.914,730.6110000000001,788.9290000000001,817.592,806.957,747.315,639.986,479.568,265.583,59.622,0.0,0.0,0.0,0.0,0.0,0.0,0.0,0.0,0.0,0.0,0.0,48.25000000000001,246.98200000000003,462.186,627.215,749.071,817.054,840.2,816.972,752.465,634.11,474.672,263.444,60.457,0.0,0.0,0.0,0.0,0.0,0.0,0.0,0.0,0.0,0.0,0.0,43.353,181.849,54.608,372.468,405.63,325.034,657.8,585.545,271.989,395.212,250.204,141.813,42.386,0.0,0.0,0.0,0.0,0.0,0.0,0.0,0.0,0.0,0.0,0.0,48.4,225.788,451.245,607.041,717.432,776.628,793.461,773.2720000000002,708.0119999999998,598.793,445.878,246.614,60.889,0.0,0.0,0.0,0.0,0.0,0.0,0.0,0.0,0.0,0.0,0.0,52.266,236.54200000000003,441.426,597.458,716.738,783.092,467.159,783.954,721.016,609.709,452.84,250.4,59.991,0.0,0.0,0.0,0.0,0.0,0.0,0.0,0.0,0.0,0.0,0.0,49.805,232.794,439.854,598.568,715.019,558.697,494.834,533.237,239.41600000000005,91.627,363.586,101.632,62.465,0.0,0.0,0.0,0.0,0.0,0.0,0.0,0.0,0.0,0.0,0.0,52.496,260.752,485.806,652.904,770.23,838.833,857.592,833.505,761.521,643.344,480.3639999999999,267.988,63.575,0.0,0.0,0.0,0.0,0.0,0.0,0.0,0.0,0.0,0.0,0.0,44.705,166.61,353.792,630.655,745.717,808.6140000000001,828.737,808.156,741.381,630.982,473.471,264.871,63.397,0.0,0.0,0.0,0.0,0.0,0.0,0.0,0.0,0.0,0.0,0.0,50.38700000000001,204.831,471.35100000000006,632.444,645.665,798.001,813.185,787.343,638.354,448.999,320.423,210.101,59.586,0.0,0.0,0.0,0.0,0.0,0.0,0.0,0.0,0.0,0.0,0.0,13.559,55.33,81.697,100.938,114.791,320.425,486.871,412.047,284.062,173.927,44.431,6.829,0.0,0.0,0.0,0.0,0.0,0.0,0.0,0.0,0.0,0.0,0.0,0.0,49.965,191.179,332.67,445.682,599.506,592.28,342.156,404.74,392.612,85.632,338.985,253.381,66.817,0.0,0.0,0.0,0.0,0.0,0.0,0.0,0.0,0.0,0.0,0.0,54.347,241.81700000000004,379.725,250.414,342.901,557.535,267.893,245.929,718.711,609.649,456.234,258.766,66.434,0.0,0.0,0.0,0.0,0.0,0.0,0.0,0.0,0.0,0.0,0.0,0.0,0.0,4.2,70.505,178.282,289.828,402.042,525.317,150.112,49.097,33.68,39.801,11.112,0.0,0.0,0.0,0.0,0.0,0.0,0.0,0.0,0.0,0.0,0.0,55.294,140.498,329.872,619.04,731.545,796.595,653.957,518.737,513.562,554.292,469.652,266.077,67.896,0.0,0.0,0.0,0.0,0.0,0.0,0.0,0.0,0.0,0.0,0.0,58.527,259.422,474.327,641.156,759.758,831.708,858.514,832.608,758.936,575.684,483.829,219.63,66.182,0.0,0.0,0.0,0.0,0.0,0.0,0.0,0.0,0.0,0.0,0.0,61.034,264.844,475.034,628.0660000000001,735.384,797.5040000000001,821.26,805.607,748.249,638.437,482.441,278.026,73.553,0.0,0.0,0.0,0.0,0.0,0.0,0.0,0.0,0.0,0.0,0.0,59.704,259.605,467.39,621.3749999999999,726.398,555.424,809.695,778.5829999999999,717.086,610.812,460.751,266.057,73.449,0.0,0.0,0.0,0.0,0.0,0.0,0.0,0.0,0.0,0.0,0.0,59.95,248.313,452.975,612.786,727.434,790.44,796.9659999999999,383.472,692.854,397.07200000000006,400.947,260.481,75.023,0.0,0.0,0.0,0.0,0.0,0.0,0.0,0.0,0.0,0.0,0.0,60.734,245.699,446.642,597.596,703.433,679.031,789.7759999999998,770.813,564.637,492.532,455.588,264.659,74.492,0.0,0.0,0.0,0.0,0.0,0.0,0.0,0.0,0.0,0.0,0.0,58.998,261.308,477.844,492.934,755.016,629.327,571.406,817.0440000000001,523.14,631.871,366.365,276.198,75.45,0.0,0.0,0.0,0.0,0.0,0.0,0.0,0.0,0.0,0.0,0.0,59.657,254.633,460.198,612.23,724.06,500.344,648.858,780.263,720.903,614.5640000000001,463.164,267.457,76.662,0.0,0.0,0.0,0.0,0.0,0.0,0.0,0.0,0.0,0.0,0.0,59.273,246.288,448.327,602.951,718.7739999999999,787.651,812.718,634.156,716.415,605.963,365.004,265.712,76.923,0.0,0.0,0.0,0.0,0.0,0.0,0.0,0.0,0.0,0.0,0.0,61.446,243.714,439.233,590.649,564.062,761.391,221.41200000000003,527.941,291.789,434.318,384.019,234.23,73.777,0.0,0.0,0.0,0.0,0.0,0.0,0.0,0.0,0.0,0.0,0.0,60.384,248.29,446.465,595.475,699.831,756.131,772.739,755.4629999999999,499.3980000000001,397.977,447.571,0.739,0.0,0.0,0.0,0.0,0.0,0.0,0.0,0.0,0.0,0.0,0.0,0.0,62.197,241.866,432.683,577.663,682.588,739.404,755.455,681.461,561.657,509.057,434.567,218.038,58.827,0.0,0.0,0.0,0.0,0.0,0.0,0.0,0.0,0.0,0.0,0.0,60.929,244.885,440.231,588.463,682.15,742.906,454.774,628.123,681.622,579.379,438.043,257.743,81.62799999999999,0.0,0.0,0.0,0.0,0.0,0.0,0.0,0.0,0.0,0.0,0.0,62.973,184.584,423.687,562.427,658.938,717.993,740.039,631.347,565.747,383.6240000000001,268.584,180.587,60.506,0.0,0.0,0.0,0.0,0.0,0.0,0.0,0.0,0.0,0.0,0.0,31.659,169.681,256.641,416.8349999999999,629.053,652.0249999999999,689.414,622.572,630.958,514.144,280.294,236.666,56.702,0.0,0.0,0.0,0.0,0.0,0.0,0.0,0.0,0.0,0.0,0.0,32.701,80.926,269.36,403.431,497.24,512.363,632.173,656.777,625.058,503.622,365.27,262.502,36.958,0.0,0.0,0.0,0.0,0.0,0.0,0.0,0.0,0.0,0.0,0.0,0.0,114.305,236.59700000000004,150.998,260.397,401.50999999999993,368.221,755.51,652.976,488.72,189.54,143.933,51.515,0.0,0.0,0.0,0.0,0.0,0.0,0.0,0.0,0.0,0.0,0.0,54.825,242.357,301.925,582.968,410.965,407.384,396.147,552.804,546.217,122.809,126.254,197.265,84.045,0.0,0.0,0.0,0.0,0.0,0.0,0.0,0.0,0.0,0.0,0.0,20.487,80.64,117.781,320.70000000000005,571.349,418.403,620.1109999999999,215.887,224.047,155.203,87.552,79.933,13.684,0.0,0.0,0.0,0.0,0.0,0.0,0.0,0.0,0.0,0.0,0.0,63.631,244.014,215.107,383.978,586.139,623.097,643.31,620.598,717.063,612.003,323.673,273.521,89.127,0.0,0.0,0.0,0.0,0.0,0.0,0.0,0.0,0.0,0.0,0.0,61.135,260.242,468.183,462.631,732.109,401.8210000000001,623.632,798.18,729.46,616.8799999999999,463.729,83.462,79.77400000000002,0.0,0.0,0.0,0.0,0.0,0.0,0.0,0.0,0.0,0.0,0.0,60.512,248.042,449.378,601.071,714.225,613.776,795.754,776.081,713.99,460.838,347.42,273.062,76.022,0.0,0.0,0.0,0.0,0.0,0.0,0.0,0.0,0.0,0.0,0.0,58.809,247.523,447.964,598.809,709.635,773.151,574.705,777.588,717.104,614.203,470.42,281.46,87.518,0.0,0.0,0.0,0.0,0.0,0.0,0.0,0.0,0.0,0.0,0.0,57.835,238.541,431.951,580.617,681.028,739.666,584.437,744.015,686.3609999999999,593.416,455.1739999999999,274.709,88.84,0.0,0.0,0.0,0.0,0.0,0.0,0.0,0.0,0.0,0.0,0.0,59.91,239.734,436.78,587.103,698.499,765.9910000000001,589.402,411.395,713.874,609.136,470.8140000000001,215.353,65.929,0.0,0.0,0.0,0.0,0.0,0.0,0.0,0.0,0.0,0.0,0.0,60.91400000000001,246.977,451.63,604.355,716.204,786.502,816.533,799.514,739.173,638.225,492.661,298.279,95.217,0.0,0.0,0.0,0.0,0.0,0.0,0.0,0.0,0.0,0.0,0.0,59.797,256.382,460.023,610.181,711.534,693.2929999999999,380.102,787.74,623.588,624.6070000000001,481.33,282.041,82.524,0.0,0.0,0.0,0.0,0.0,0.0,0.0,0.0,0.0,0.0,0.0,45.909,104.011,289.572,480.067,691.518,658.281,614.713,475.785,341.67,474.589,292.328,203.396,45.36000000000001,0.0,0.0,0.0,0.0,0.0,0.0,0.0,0.0,0.0,0.0,0.0,0.0,64.411,71.915,165.596,253.695,303.723,371.558,546.53,463.925,462.375,307.68699999999995,260.614,75.859,0.0,0.0,0.0,0.0,0.0,0.0,0.0,0.0,0.0,0.0,0.0,3.3269999999999995,63.208000000000006,149.16,454.986,523.72,483.227,288.082,651.727,721.411,490.091,445.063,274.637,95.75,0.0,0.0,0.0,0.0,0.0,0.0,0.0,0.0,0.0,0.0,0.0,56.41,234.554,430.27,588.229,710.277,585.883,623.3580000000001,702.122,668.379,563.561,366.9359999999999,185.982,72.332,0.0,0.0,0.0,0.0,0.0,0.0,0.0,0.0,0.0,0.0,0.0,52.591,70.873,227.793,288.673,570.441,400.15,447.091,556.799,602.838,385.055,322.588,243.04100000000005,88.153,0.0,0.0,0.0,0.0,0.0,0.0,0.0,0.0,0.0,0.0,0.0,54.571,107.747,441.25299999999993,331.498,330.287,539.151,515.415,496.104,305.532,497.457,68.987,274.304,81.372,0.0,0.0,0.0,0.0,0.0,0.0,0.0,0.0,0.0,0.0,0.0,34.462,44.931,151.491,350.782,342.033,639.499,636.805,776.8660000000001,654.887,571.992,395.828,261.706,95.582,0.359,0.0,0.0,0.0,0.0,0.0,0.0,0.0,0.0,0.0,0.0,45.864,207.222,348.621,252.497,349.031,309.364,332.379,264.495,239.965,370.179,395.741,292.572,93.161,0.886,0.0,0.0,0.0,0.0,0.0,0.0,0.0,0.0,0.0,0.0,0.0,80.769,175.684,323.581,293.81,431.424,510.364,475.095,499.251,434.406,216.679,185.934,1.711,0.0,0.0,0.0,0.0,0.0,0.0,0.0,0.0,0.0,0.0,0.0,49.056,235.225,438.05,51.98100000000001,215.068,604.7760000000001,666.8589999999999,653.712,716.047,618.024,477.011,292.478,96.295,0.857,0.0,0.0,0.0,0.0,0.0,0.0,0.0,0.0,0.0,0.0,50.65,232.818,433.464,584.468,685.068,749.785,773.608,762.96,716.853,622.331,447.891,250.33,89.98400000000001,0.334,0.0,0.0,0.0,0.0,0.0,0.0,0.0,0.0,0.0,0.0,43.571,233.155,435.232,586.0889999999999,695.93,761.153,787.695,760.3679999999999,707.085,610.824,441.412,245.898,65.772,0.0,0.0,0.0,0.0,0.0,0.0,0.0,0.0,0.0,0.0,0.0,48.02300000000001,208.83,328.633,483.4330000000001,626.185,658.644,511.223,534.699,293.697,551.634,384.576,213.222,82.078,0.0,0.0,0.0,0.0,0.0,0.0,0.0,0.0,0.0,0.0,0.0,2.424,202.164,300.979,419.466,667.061,732.595,759.196,745.672,696.3960000000001,486.987,324.506,11.654,22.154,0.0,0.0,0.0,0.0,0.0,0.0,0.0,0.0,0.0,0.0,0.0,9.272,160.067,337.34600000000006,502.998,605.275,604.711,666.477,654.304,517.176,445.79,386.675,244.647,90.197,0.0,0.0,0.0,0.0,0.0,0.0,0.0,0.0,0.0,0.0,0.0,50.237,214.409,425.705,572.692,667.619,730.987,660.217,453.1050000000001,559.398,520.793,359.447,237.308,61.8,0.0,0.0,0.0,0.0,0.0,0.0,0.0,0.0,0.0,0.0,0.0,52.397,216.411,407.024,457.976,314.075,621.687,659.232,540.689,626.8630000000002,535.902,344.84,108.134,80.64900000000002,0.0,0.0,0.0,0.0,0.0,0.0,0.0,0.0,0.0,0.0,0.0,48.859,219.054,414.557,564.92,676.438,741.015,500.676,747.716,702.293,609.177,471.895,290.53,97.792,0.0,0.0,0.0,0.0,0.0,0.0,0.0,0.0,0.0,0.0,0.0,42.168,222.613,422.692,575.691,681.655,746.5650000000002,642.735,538.32,226.791,503.171,419.75999999999993,194.486,77.663,0.0,0.0,0.0,0.0,0.0,0.0,0.0,0.0,0.0,0.0,0.0,38.23899999999999,218.913,227.37,449.193,665.6479999999999,564.288,454.48,125.98,483.061,541.284,466.589,248.683,93.469,0.333,0.0,0.0,0.0,0.0,0.0,0.0,0.0,0.0,0.0,0.0,45.86,218.432,414.9429999999999,569.23,481.93,551.498,671.22,575.861,347.36,45.531,216.582,214.915,87.539,0.0,0.0,0.0,0.0,0.0,0.0,0.0,0.0,0.0,0.0,0.0,20.33,155.752,288.008,490.172,588.515,567.584,400.8,654.004,560.28,464.376,257.669,223.901,62.08,0.0,0.0,0.0,0.0,0.0,0.0,0.0,0.0,0.0,0.0,0.0,38.315,168.134,286.128,376.366,334.389,743.736,601.939,771.166,623.166,502.623,365.686,247.688,93.893,0.0,0.0,0.0,0.0,0.0,0.0,0.0,0.0,0.0,0.0,0.0,39.909,193.671,389.704,422.383,692.745,763.646,788.824,691.1669999999999,629.275,542.494,392.861,292.325,98.422,0.0,0.0,0.0,0.0,0.0,0.0,0.0,0.0,0.0,0.0,0.0,39.748,216.224,420.002,343.049,208.093,754.777,140.548,656.771,592.887,509.45,342.793,87.998,56.486,0.0,0.0,0.0,0.0,0.0,0.0,0.0,0.0,0.0,0.0,0.0,42.14,210.866,407.935,562.76,470.142,448.065,488.517,751.8009999999999,694.006,460.364,139.783,189.978,76.75899999999999,0.0,0.0,0.0,0.0,0.0,0.0,0.0,0.0,0.0,0.0,0.0,42.335,210.563,406.651,559.888,662.325,729.7479999999999,754.574,739.321,688.686,594.046,459.909,207.005,4.05,0.0,0.0,0.0,0.0,0.0,0.0,0.0,0.0,0.0,0.0,0.0,43.27499999999999,135.23,244.803,367.892,512.197,440.222,605.099,761.727,707.0749999999999,223.225,49.745,152.03,76.095,0.0,0.0,0.0,0.0,0.0,0.0,0.0,0.0,0.0,0.0,0.0,43.009,97.288,188.693,352.772,333.788,559.482,623.303,645.011,649.241,605.857,463.389,229.378,89.334,0.0,0.0,0.0,0.0,0.0,0.0,0.0,0.0,0.0,0.0,0.0,41.26899999999999,99.107,415.743,443.821,591.695,666.564,641.861,679.918,724.823,456.628,362.606,90.28300000000002,71.323,0.0,0.0,0.0,0.0,0.0,0.0,0.0,0.0,0.0,0.0,0.0,38.735,210.812,417.137,581.178,683.781,756.0170000000002,783.767,774.598,711.991,609.3,304.896,70.408,26.352,0.0,0.0,0.0,0.0,0.0,0.0,0.0,0.0,0.0,0.0,0.0,33.688,176.974,384.859,382.23500000000007,480.361,749.572,777.073,757.2430000000002,698.486,601.383,468.381,285.91,90.437,0.0,0.0,0.0,0.0,0.0,0.0,0.0,0.0,0.0,0.0,0.0,37.07,207.675,409.3879999999999,563.001,676.339,745.5200000000001,343.674,736.081,433.1,507.004,387.185,269.887,93.98,0.0,0.0,0.0,0.0,0.0,0.0,0.0,0.0,0.0,0.0,0.0,37.602,195.198,381.784,532.698,638.981,707.032,554.531,717.1180000000002,588.908,566.171,429.703,261.486,50.4,0.0,0.0,0.0,0.0,0.0,0.0,0.0,0.0,0.0,0.0,0.0,33.374,189.45,371.91,522.64,636.252,702.032,547.246,326.169,657.347,564.026,430.531,250.947,0.0,0.0,0.0,0.0,0.0,0.0,0.0,0.0,0.0,0.0,0.0,0.0,36.085,194.746,216.073,282.001,663.236,736.247,761.6839999999999,748.419,690.907,590.331,448.83,231.839,71.508,0.0,0.0,0.0,0.0,0.0,0.0,0.0,0.0,0.0,0.0,0.0,24.581,127.46800000000002,134.821,383.3279999999999,539.76,242.604,133.283,294.293,536.334,218.038,17.51,101.926,39.165,0.0,0.0,0.0,0.0,0.0,0.0,0.0,0.0,0.0,0.0,0.0,35.209,198.223,402.042,558.79,671.194,741.343,766.934,745.689,529.115,594.697,453.89,271.989,79.556,0.0,0.0,0.0,0.0,0.0,0.0,0.0,0.0,0.0,0.0,0.0,34.41,193.588,386.658,536.74,270.037,545.41,661.91,648.265,484.205,524.35,412.0,200.534,53.622,0.0,0.0,0.0,0.0,0.0,0.0,0.0,0.0,0.0,0.0,0.0,32.486,190.401,169.752,93.75,381.555,647.051,600.528,609.708,539.571,454.826,75.759,91.68,51.365,0.0,0.0,0.0,0.0,0.0,0.0,0.0,0.0,0.0,0.0,0.0,30.928999999999995,191.873,390.866,549.77,667.884,740.2070000000001,634.807,496.662,584.086,616.9560000000001,473.69,268.645,71.732,0.0,0.0,0.0,0.0,0.0,0.0,0.0,0.0,0.0,0.0,0.0,31.28,189.036,389.598,548.169,154.026,540.046,772.274,298.98,509.49,421.409,429.718,225.618,65.789,0.0,0.0,0.0,0.0,0.0,0.0,0.0,0.0,0.0,0.0,0.0,30.553,189.543,393.177,556.177,374.889,141.697,248.683,245.19600000000003,416.361,454.709,427.652,263.057,80.84,0.0,0.0,0.0,0.0,0.0,0.0,0.0,0.0,0.0,0.0,0.0,21.486,57.061,139.478,480.02,240.042,520.988,533.101,579.273,87.205,108.766,55.575,106.715,42.957,0.0,0.0,0.0,0.0,0.0,0.0,0.0,0.0,0.0,0.0,0.0,27.857,164.243,184.483,45.806,529.289,402.668,672.097,687.188,497.575,480.952,387.109,253.484,77.853,0.0,0.0,0.0,0.0,0.0,0.0,0.0,0.0,0.0,0.0,0.0,14.283,92.807,324.891,296.519,461.89,582.604,239.31200000000004,214.427,274.968,492.589,463.8999999999999,271.154,81.018,0.0,0.0,0.0,0.0,0.0,0.0,0.0,0.0,0.0,0.0,0.0,25.565,187.565,395.442,553.552,663.963,570.9,758.761,516.93,389.4,461.515,448.71,264.274,70.547,0.0,0.0,0.0,0.0,0.0,0.0,0.0,0.0,0.0,0.0,0.0,25.535000000000004,188.03,396.414,559.125,675.896,563.221,558.036,346.517,235.849,282.924,385.9,261.459,76.939,0.0,0.0,0.0,0.0,0.0,0.0,0.0,0.0,0.0,0.0,0.0,25.805,183.24500000000003,386.12,548.858,672.176,741.6150000000001,527.68,750.624,478.024,530.286,316.165,146.99,49.023,0.0,0.0,0.0,0.0,0.0,0.0,0.0,0.0,0.0,0.0,0.0,24.9,182.72,388.432,549.93,667.3510000000001,621.252,642.938,608.357,547.538,591.794,448.654,259.566,74.485,0.0,0.0,0.0,0.0,0.0,0.0,0.0,0.0,0.0,0.0,0.0,20.583,151.8,353.189,527.743,557.882,617.0320000000002,504.084,731.525,677.896,580.073,432.304,234.178,57.737,0.0,0.0,0.0,0.0,0.0,0.0,0.0,0.0,0.0,0.0,0.0,12.044,133.959,274.679,526.787,653.3729999999999,727.327,756.979,625.721,644.413,539.594,341.475,223.77,0.0,0.0,0.0,0.0,0.0,0.0,0.0,0.0,0.0,0.0,0.0,0.0,18.757,128.851,295.031,422.987,516.614,551.05,488.489,150.958,257.946,153.819,278.843,245.898,69.734,0.0,0.0,0.0,0.0,0.0,0.0,0.0,0.0,0.0,0.0,0.0,21.81,186.058,399.984,565.876,684.216,592.464,586.612,438.738,710.7069999999999,612.642,465.419,268.147,66.183,0.0,0.0,0.0,0.0,0.0,0.0,0.0,0.0,0.0,0.0,0.0,19.31,186.559,403.363,569.334,462.241,476.511,796.314,781.8310000000001,721.655,617.658,469.756,269.456,64.153,0.0,0.0,0.0,0.0,0.0,0.0,0.0,0.0,0.0,0.0,0.0,18.226,181.487,388.004,546.767,661.8709999999999,729.379,756.685,656.062,534.99,466.885,275.046,212.115,64.274,0.0,0.0,0.0,0.0,0.0,0.0,0.0,0.0,0.0,0.0,0.0,17.923,184.399,401.652,564.728,681.244,751.422,772.695,757.209,699.904,599.151,455.736,260.159,61.992,0.0,0.0,0.0,0.0,0.0,0.0,0.0,0.0,0.0,0.0,0.0,16.287,183.937,402.356,566.569,684.0150000000001,755.068,644.401,312.03099999999995,248.153,605.81,421.5280000000001,221.817,49.851,0.0,0.0,0.0,0.0,0.0,0.0,0.0,0.0,0.0,0.0,0.0,15.681,181.644,398.894,564.785,683.0690000000001,327.242,707.977,762.21,142.008,138.265,336.921,182.163,53.469,0.0,0.0,0.0,0.0,0.0,0.0,0.0,0.0,0.0,0.0,0.0,14.489,181.691,400.192,571.752,695.4960000000001,770.3719999999998,639.7119999999999,480.753,485.68799999999993,467.435,181.45900000000003,259.255,56.826,0.0,0.0,0.0,0.0,0.0,0.0,0.0,0.0,0.0,0.0,0.0,14.307,111.554,143.958,272.771,371.701,477.508,381.639,256.916,182.55,44.115,213.158,1.701,20.998,0.0,0.0,0.0,0.0,0.0,0.0,0.0,0.0,0.0,0.0,0.0,4.434,33.418,186.269,203.791,320.9390000000001,352.48900000000003,617.755,410.942,575.183,237.671,114.862,44.617,12.377,0.0,0.0,0.0,0.0,0.0,0.0,0.0,0.0,0.0,0.0,0.0,10.034999999999998,95.802,143.207,292.01,523.832,604.499,267.346,501.68,95.284,585.083,435.334,156.457,51.56,0.0,0.0,0.0,0.0,0.0,0.0,0.0,0.0,0.0,0.0,0.0,7.598,112.796,229.86900000000003,505.461,662.012,389.396,612.258,457.795,407.964,575.826,420.831,201.879,40.035,0.0,0.0,0.0,0.0,0.0,0.0,0.0,0.0,0.0,0.0,0.0,10.023,174.45,390.45,558.645,680.459,749.572,771.063,239.439,579.796,582.242,434.403,194.01,44.145,0.0,0.0,0.0,0.0,0.0,0.0,0.0,0.0,0.0,0.0,0.0,9.182,176.684,400.44,575.593,693.057,555.375,595.216,359.98,66.724,123.123,237.505,221.974,44.439,0.0,0.0,0.0,0.0,0.0,0.0,0.0,0.0,0.0,0.0,0.0,2.109,66.035,219.749,244.157,114.698,55.846,102.992,151.354,200.021,200.684,226.968,214.628,42.192,0.0,0.0,0.0,0.0,0.0,0.0,0.0,0.0,0.0,0.0,0.0,7.223,76.321,216.809,346.009,436.394,521.008,475.028,219.079,391.289,351.917,250.971,123.339,23.905,0.0,0.0,0.0,0.0,0.0,0.0,0.0,0.0,0.0,0.0,0.0,0.833,93.504,227.654,239.11,129.032,315.51199999999994,311.66400000000004,445.362,465.358,551.502,345.876,173.523,21.299,0.0,0.0,0.0,0.0,0.0,0.0,0.0,0.0,0.0,0.0,0.0,6.257,107.536,260.087,344.482,472.479,489.622,646.797,613.465,566.515,499.842,338.974,141.665,25.46,0.0,0.0,0.0,0.0,0.0,0.0,0.0,0.0,0.0,0.0,0.0,6.769999999999999,176.70599999999996,406.263,583.575,707.774,783.407,665.002,634.4160000000002,711.189,505.7919999999999,443.627,203.305,34.456,0.0,0.0,0.0,0.0,0.0,0.0,0.0,0.0,0.0,0.0,0.0,5.303,173.073,397.75,571.346,378.7120000000001,759.7400000000001,566.157,629.3680000000002,698.846,426.295,51.077,135.621,33.339,0.0,0.0,0.0,0.0,0.0,0.0,0.0,0.0,0.0,0.0,0.0,4.915,168.151,301.594,546.125,666.436,358.48300000000006,198.95,456.073,690.807,581.029,426.593,80.592,31.99,0.0,0.0,0.0,0.0,0.0,0.0,0.0,0.0,0.0,0.0,0.0,3.976,168.366,386.29,558.984,685.322,762.035,787.119,773.292,704.166,588.574,424.42,212.044,29.488,0.0,0.0,0.0,0.0,0.0,0.0,0.0,0.0,0.0,0.0,0.0,0.0,0.87,257.874,426.712,633.945,706.9609999999999,735.035,707.404,548.934,373.879,218.472,98.04,20.905999999999995,0.0,0.0,0.0,0.0,0.0,0.0,0.0,0.0,0.0,0.0,0.0,1.916,152.506,349.248,515.992,357.49,546.246,490.851,715.199,654.487,546.429,397.966,196.743,25.343,0.0,0.0,0.0,0.0,0.0,0.0,0.0,0.0,0.0,0.0,0.0,3.858000000000001,162.199,384.897,561.8,686.474,759.239,523.266,492.945,569.245,573.102,392.297,0.0,9.195,0.0,0.0,0.0,0.0,0.0,0.0,0.0,0.0,0.0,0.0,0.0,3.485,162.383,385.057,556.75,678.9969999999998,752.036,777.396,517.988,683.103,218.342,412.244,200.211,21.055,0.0,0.0,0.0,0.0,0.0,0.0,0.0,0.0,0.0,0.0,0.0,2.951,159.641,331.10200000000003,355.938,486.968,365.353,559.972,431.703,572.287,390.0559999999999,277.238,69.066,17.98,0.0,0.0,0.0,0.0,0.0,0.0,0.0,0.0,0.0,0.0,0.0,2.486,136.481,264.54,415.332,482.937,581.385,662.279,597.129,593.602,417.64,340.639,177.719,15.133,0.0,0.0,0.0,0.0,0.0,0.0,0.0,0.0,0.0,0.0,0.0,0.0,0.896,15.336,33.38,114.098,145.572,133.979,107.668,72.765,91.147,154.369,131.042,10.819,0.0,0.0,0.0,0.0,0.0,0.0,0.0,0.0,0.0,0.0,0.0,3.222,160.591,387.712,273.704,293.024,770.005,612.3700000000001,557.745,311.393,462.014,240.796,113.096,6.301,0.0,0.0,0.0,0.0,0.0,0.0,0.0,0.0,0.0,0.0,0.0,2.809,161.989,127.998,175.991,260.835,145.484,201.253,237.298,298.59,574.215,405.773,185.397,8.558,0.0,0.0,0.0,0.0,0.0,0.0,0.0,0.0,0.0,0.0,0.0,2.793,164.42,393.084,571.396,510.006,776.734,802.8989999999999,624.953,708.234,582.986,408.738,184.577,7.226,0.0,0.0,0.0,0.0,0.0,0.0,0.0,0.0,0.0,0.0,0.0,1.628,159.87,385.568,565.262,684.6119999999999,762.138,792.771,765.619,694.267,381.562,397.404,178.384,6.146,0.0,0.0,0.0,0.0,0.0,0.0,0.0,0.0,0.0,0.0,0.0,0.0,37.322,260.482,397.573,584.536,505.014,656.4160000000002,648.806,683.345,562.651,392.036,173.383,4.719,0.0,0.0,0.0,0.0,0.0,0.0,0.0,0.0,0.0,0.0,0.0,1.074,159.674,391.287,576.101,697.01,776.069,804.5569999999999,781.6490000000001,705.4539999999998,579.577,405.994,178.853,4.292,0.0,0.0,0.0,0.0,0.0,0.0,0.0,0.0,0.0,0.0,0.0,1.112,161.301,392.841,566.503,686.754,756.412,781.537,759.168,689.773,572.375,394.956,172.356,3.382,0.0,0.0,0.0,0.0,0.0,0.0,0.0,0.0,0.0,0.0,0.0,1.078,160.472,129.076,210.491,469.522,729.195,740.39,708.703,641.356,526.507,363.937,156.309,1.992,0.0,0.0,0.0,0.0,0.0,0.0,0.0,0.0,0.0,0.0,0.0,0.0,38.903,76.266,253.38,558.322,495.722,145.806,63.329,352.31,34.551,31.722,108.738,1.913,0.0,0.0,0.0,0.0,0.0,0.0,0.0,0.0,0.0,0.0,0.0,0.0,104.866,371.44,468.017,664.722,738.805,763.715,619.509,670.3619999999999,475.934,374.201,147.292,1.913,0.0,0.0,0.0,0.0,0.0,0.0,0.0,0.0,0.0,0.0,0.0,0.0,149.857,340.433,475.9479999999999,529.812,650.657,632.778,685.2410000000001,607.523,487.126,190.387,148.49,0.0,0.0,0.0,0.0,0.0,0.0,0.0,0.0,0.0,0.0,0.0,0.0,0.0,157.293,399.244,589.085,720.411,797.8140000000001,821.527,788.231,711.1470000000002,582.049,398.396,162.112,0.502,0.0,0.0,0.0,0.0,0.0,0.0,0.0,0.0,0.0,0.0,0.0,0.0,167.35600000000002,414.832,600.993,726.023,799.756,821.507,792.8,718.557,587.197,403.29,162.659,0.0,0.0,0.0,0.0,0.0,0.0,0.0,0.0,0.0,0.0,0.0,0.0,0.0,113.492,377.644,495.956,573.184,751.467,770.4099999999999,731.955,567.277,374.889,206.491,42.034,0.0,0.0,0.0,0.0,0.0,0.0,0.0,0.0,0.0,0.0,0.0,0.0,0.0,143.879,367.105,463.328,533.596,633.392,446.886,516.696,417.558,362.89900000000006,320.81000000000006,124.407,0.0,0.0,0.0,0.0,0.0,0.0,0.0,0.0,0.0,0.0,0.0,0.0,0.0,109.387,252.977,413.745,542.562,750.112,628.049,377.296,355.336,41.904,156.537,57.488,0.0,0.0,0.0,0.0,0.0,0.0,0.0,0.0,0.0,0.0,0.0,0.0,0.0,0.049,103.253,260.034,383.748,481.303,300.546,224.475,157.839,121.885,198.409,41.058,0.0,0.0,0.0,0.0,0.0,0.0,0.0,0.0,0.0,0.0,0.0,0.0,0.0,36.985,171.517,318.05499999999995,256.761,522.439,783.142,533.865,473.743,553.956,369.957,136.767,0.0,0.0,0.0,0.0,0.0,0.0,0.0,0.0,0.0,0.0,0.0,0.0,0.0,140.777,202.053,470.088,527.745,528.737,564.933,398.185,320.451,384.275,292.791,80.797,0.0,0.0,0.0,0.0,0.0,0.0,0.0,0.0,0.0,0.0,0.0,0.0,0.0,43.59,118.144,251.463,293.781,317.173,447.577,391.5400000000001,224.66,220.455,43.835,30.366,0.0,0.0,0.0,0.0,0.0,0.0,0.0,0.0,0.0,0.0,0.0,0.0,0.0,143.287,267.408,449.138,601.791,422.62500000000006,524.864,344.639,193.576,258.946,234.36,114.338,0.0,0.0,0.0,0.0,0.0,0.0,0.0,0.0,0.0,0.0,0.0,0.0,0.0,136.485,360.098,530.821,649.999,718.0249999999999,572.874,715.624,571.153,456.476,156.204,109.884,0.0,0.0,0.0,0.0,0.0,0.0,0.0,0.0,0.0,0.0,0.0,0.0,0.0,132.537,353.958,530.167,655.808,728.551,516.815,729.6730000000001,651.001,314.76300000000003,335.154,113.471,0.0,0.0,0.0,0.0,0.0,0.0,0.0,0.0,0.0,0.0,0.0,0.0,0.0,154.452,354.507,607.161,733.401,807.983,828.502,791.695,706.4,571.803,371.23,123.864,0.0,0.0,0.0,0.0,0.0,0.0,0.0,0.0,0.0,0.0,0.0,0.0,0.0,125.952,340.17600000000004,602.451,564.756,601.016,820.522,685.951,647.734,335.006,110.722,102.414,0.0,0.0,0.0,0.0,0.0,0.0,0.0,0.0,0.0,0.0,0.0,0.0,0.0,142.288,380.23,563.876,684.472,752.523,767.793,731.245,648.399,519.049,321.912,98.762,0.0,0.0,0.0,0.0,0.0,0.0,0.0,0.0,0.0,0.0,0.0,0.0,0.0,126.954,344.276,510.653,623.013,686.3379999999999,707.429,673.9269999999999,599.581,472.808,282.05,82.639,0.0,0.0,0.0,0.0,0.0,0.0,0.0,0.0,0.0,0.0,0.0,0.0,0.0,57.648,262.409,385.069,571.153,612.123,648.482,633.848,621.651,492.438,306.068,92.685,0.0,0.0,0.0,0.0,0.0,0.0,0.0,0.0,0.0,0.0,0.0,0.0,0.0,137.465,378.021,563.718,689.679,763.764,780.804,743.664,659.596,525.093,328.312,96.136,0.0,0.0,0.0,0.0,0.0,0.0,0.0,0.0,0.0,0.0,0.0,0.0,0.0,135.855,373.691,555.098,673.547,739.856,753.442,715.2629999999999,635.321,505.946,315.65,90.375,0.0,0.0,0.0,0.0,0.0,0.0,0.0,0.0,0.0,0.0,0.0,0.0,0.0,129.784,359.99999999999994,535.96,653.262,718.882,732.749,693.97,612.16,477.8,276.87,73.708,0.0,0.0,0.0,0.0,0.0,0.0,0.0,0.0,0.0,0.0,0.0,0.0,0.0,122.359,349.586,537.627,676.627,751.087,769.391,740.382,660.635,527.817,327.479,89.898,0.0,0.0,0.0,0.0,0.0,0.0,0.0,0.0,0.0,0.0,0.0,0.0,0.0,137.28,383.632,573.825,701.57,775.7160000000001,799.171,764.027,677.5899999999999,536.568,327.696,86.668,0.0,0.0,0.0,0.0,0.0,0.0,0.0,0.0,0.0,0.0,0.0,0.0,0.0,135.923,148.533,249.33000000000004,317.648,566.966,336.11600000000004,741.3350000000002,653.233,320.365,310.268,78.824,0.0,0.0,0.0,0.0,0.0,0.0,0.0,0.0,0.0,0.0,0.0,0.0,0.0,131.463,371.993,555.083,676.897,552.899,358.65,483.4940000000001,190.339,472.498,134.069,65.099,0.0,0.0,0.0,0.0,0.0,0.0,0.0,0.0,0.0,0.0,0.0,0.0,0.0,21.871,70.302,287.041,572.829,547.708,579.111,465.235,279.057,494.212,292.297,68.91,0.0,0.0,0.0,0.0,0.0,0.0,0.0,0.0,0.0,0.0,0.0,0.0,0.0,128.411,376.57,427.034,686.953,634.9,773.629,567.365,564.441,517.369,311.423,74.279,0.0,0.0,0.0,0.0,0.0,0.0,0.0,0.0,0.0,0.0,0.0,0.0,0.0,39.57,264.432,264.276,265.16,553.998,131.778,500.1170000000001,376.614,339.929,128.989,33.5,0.0,0.0,0.0,0.0,0.0,0.0,0.0,0.0,0.0,0.0,0.0,0.0,0.0,135.431,311.75100000000003,588.173,717.802,786.12,800.165,760.881,666.484,524.321,312.8,70.738,0.0,0.0,0.0,0.0,0.0,0.0,0.0,0.0,0.0,0.0,0.0,0.0,0.0,128.628,312.847,568.898,604.714,552.612,670.3619999999999,623.574,495.642,354.712,265.765,30.204,0.0,0.0,0.0,0.0,0.0,0.0,0.0,0.0,0.0,0.0,0.0,0.0,0.0,28.475,104.226,341.921,267.401,102.709,277.438,158.856,170.236,264.778,80.602,18.576,0.0,0.0,0.0,0.0,0.0,0.0,0.0,0.0,0.0,0.0,0.0,0.0,0.0,63.038,259.049,283.656,131.429,193.797,172.936,209.834,130.83,52.711,66.336,8.422,0.0,0.0,0.0,0.0,0.0,0.0,0.0,0.0,0.0,0.0,0.0,0.0,0.0,32.826,151.505,154.064,230.271,223.123,526.689,405.432,283.262,404.431,221.344,35.425,0.0,0.0,0.0,0.0,0.0,0.0,0.0,0.0,0.0,0.0,0.0,0.0,0.0,104.53,172.38299999999998,499.214,613.109,685.001,705.088,675.08,591.834,277.812,251.607,42.961,0.0,0.0,0.0,0.0,0.0,0.0,0.0,0.0,0.0,0.0,0.0,0.0,0.0,69.62,275.295,515.264,640.993,707.626,724.373,688.634,597.688,456.811,252.14,41.646,0.0,0.0,0.0,0.0,0.0,0.0,0.0,0.0,0.0,0.0,0.0,0.0,0.0,100.423,326.717,251.005,314.904,479.205,694.751,433.52,566.102,430.924,234.516,36.06,0.0,0.0,0.0,0.0,0.0,0.0,0.0,0.0,0.0,0.0,0.0,0.0,0.0,94.798,320.119,508.356,399.005,425.723,550.916,514.479,498.313,315.366,237.936,33.849,0.0,0.0,0.0,0.0,0.0,0.0,0.0,0.0,0.0,0.0,0.0,0.0,0.0,0.242,248.757,347.268,708.337,792.742,818.987,782.755,690.566,533.58,298.484,43.708,0.0,0.0,0.0,0.0,0.0,0.0,0.0,0.0,0.0,0.0,0.0,0.0,0.0,115.907,371.582,577.348,712.522,788.005,803.842,758.879,658.993,503.555,275.109,35.723,0.0,0.0,0.0,0.0,0.0,0.0,0.0,0.0,0.0,0.0,0.0,0.0,0.0,111.403,364.665,561.704,506.666,759.257,772.089,729.8689999999999,630.189,484.336,264.042,31.017000000000003,0.0,0.0,0.0,0.0,0.0,0.0,0.0,0.0,0.0,0.0,0.0,0.0,0.0,0.0,77.921,149.817,148.296,323.603,236.734,119.266,181.138,123.86,2.728,0.0,0.0,0.0,0.0,0.0,0.0,0.0,0.0,0.0,0.0,0.0,0.0,0.0,0.0,66.486,77.033,267.557,377.9359999999999,432.115,366.161,169.73799999999997,42.688,100.958,42.728,0.0,0.0,0.0,0.0,0.0,0.0,0.0,0.0,0.0,0.0,0.0,0.0,0.0,0.0,98.548,347.083,372.112,508.514,772.465,789.269,745.782,649.327,494.999,264.57,21.382,0.0,0.0,0.0,0.0,0.0,0.0,0.0,0.0,0.0,0.0,0.0,0.0,0.0,102.904,358.409,558.939,686.6260000000001,754.335,765.282,718.8,625.499,476.98,259.273,19.539,0.0,0.0,0.0,0.0,0.0,0.0,0.0,0.0,0.0,0.0,0.0,0.0,0.0,99.12900000000002,350.26399999999995,547.406,673.63,744.5889999999999,755.6759999999999,717.229,625.988,479.224,255.54700000000005,18.608,0.0,0.0,0.0,0.0,0.0,0.0,0.0,0.0,0.0,0.0,0.0,0.0,0.0,86.548,322.674,513.916,630.5180000000001,687.991,468.557,666.899,584.703,445.157,234.309,14.845,0.0,0.0,0.0,0.0,0.0,0.0,0.0,0.0,0.0,0.0,0.0,0.0,0.0,30.261,92.273,232.66600000000005,374.898,327.545,321.92600000000004,138.225,186.345,9.387,78.334,1.361,0.0,0.0,0.0,0.0,0.0,0.0,0.0,0.0,0.0,0.0,0.0,0.0,0.0,84.97299999999998,53.544,126.511,404.138,723.074,742.4399999999999,706.905,614.578,466.085,241.71100000000004,14.283,0.0,0.0,0.0,0.0,0.0,0.0,0.0,0.0,0.0,0.0,0.0,0.0,0.0,90.376,349.276,558.157,693.221,767.8219999999999,781.868,738.433,638.52,483.215,248.478,14.113,0.0,0.0,0.0,0.0,0.0,0.0,0.0,0.0,0.0,0.0,0.0,0.0,0.0,81.145,325.95199999999994,530.001,529.633,576.443,741.177,594.023,587.262,319.857,146.383,3.671,0.0,0.0,0.0,0.0,0.0,0.0,0.0,0.0,0.0,0.0,0.0,0.0,0.0,64.082,294.107,500.383,649.291,716.9660000000001,733.81,691.664,593.959,438.293,215.878,8.619,0.0,0.0,0.0,0.0,0.0,0.0,0.0,0.0,0.0,0.0,0.0,0.0,0.0,7.380999999999999,115.671,309.357,609.352,680.2229999999998,692.773,651.107,560.605,414.801,204.848,6.881,0.0,0.0,0.0,0.0,0.0,0.0,0.0,0.0,0.0,0.0,0.0,0.0,0.0,10.506,47.864,384.988,446.812,667.383,353.804,313.1809999999999,125.758,85.717,85.60399999999998,4.780999999999999,0.0,0.0,0.0,0.0,0.0,0.0,0.0,0.0,0.0,0.0,0.0,0.0,0.0,77.171,334.973,550.974,688.6469999999999,760.7,775.978,729.064,624.918,467.648,233.548,9.028,0.0,0.0,0.0,0.0,0.0,0.0,0.0,0.0,0.0,0.0,0.0,0.0,0.0,62.665000000000006,296.648,500.13200000000006,542.081,698.301,703.014,661.509,562.549,417.084,86.343,5.323999999999999,0.0,0.0,0.0,0.0,0.0,0.0,0.0,0.0,0.0,0.0,0.0,0.0,0.0,59.578,290.093,490.538,494.301,516.611,480.687,666.801,571.157,311.813,211.071,6.045,0.0,0.0,0.0,0.0,0.0,0.0,0.0,0.0,0.0,0.0,0.0,0.0,0.0,60.638,295.398,497.37,621.0,681.083,692.123,656.229,565.762,419.138,205.055,4.74,0.0,0.0,0.0,0.0,0.0,0.0,0.0,0.0,0.0,0.0,0.0,0.0,0.0,35.901,223.545,426.475,520.714,555.237,486.747,541.48,397.753,285.987,62.935,0.0,0.0,0.0,0.0,0.0,0.0,0.0,0.0,0.0,0.0,0.0,0.0,0.0,0.0,56.286,207.611,416.62000000000006,584.606,792.6230000000002,810.6869999999999,765.5359999999998,657.052,491.008,242.385,7.391,0.0,0.0,0.0,0.0,0.0,0.0,0.0,0.0,0.0,0.0,0.0,0.0,0.0,53.704,302.014,515.999,585.703,721.217,662.457,687.397,588.138,398.872,2.798,0.0,0.0,0.0,0.0,0.0,0.0,0.0,0.0,0.0,0.0,0.0,0.0,0.0,0.0,12.287,32.485,70.766,98.138,99.792,118.909,64.167,105.193,60.559,53.841,0.0,0.0,0.0,0.0,0.0,0.0,0.0,0.0,0.0,0.0,0.0,0.0,0.0,0.0,38.108,259.287,254.86600000000004,589.243,450.084,670.705,251.428,239.006,72.984,64.392,0.0,0.0,0.0,0.0,0.0,0.0,0.0,0.0,0.0,0.0,0.0,0.0,0.0,0.0,32.23,247.01,244.462,182.644,417.569,488.8,518.483,437.956,69.309,30.79,0.0,0.0,0.0,0.0,0.0,0.0,0.0,0.0,0.0,0.0,0.0,0.0,0.0,0.0,1.2700000000000002,21.216999999999995,57.275,67.368,174.376,138.968,181.445,102.269,260.108,45.425,0.0,0.0,0.0,0.0,0.0,0.0,0.0,0.0,0.0,0.0,0.0,0.0,0.0,0.0,34.939,288.401,508.364,641.092,716.706,733.558,691.147,593.01,437.272,106.535,0.0,0.0,0.0,0.0,0.0,0.0,0.0,0.0,0.0,0.0,0.0,0.0,0.0,0.0,6.287,144.787,296.915,285.655,352.447,276.179,368.57,172.881,114.212,22.192,0.0,0.0,0.0,0.0,0.0,0.0,0.0,0.0,0.0,0.0,0.0,0.0,0.0,0.0,14.929,101.04,218.408,572.328,651.731,671.342,631.469,536.942,168.674,107.81,0.0,0.0,0.0,0.0,0.0,0.0,0.0,0.0,0.0,0.0,0.0,0.0,0.0,0.0,17.807,41.584,148.893,256.333,632.855,643.016,604.891,514.74,148.399,36.518,0.0,0.0,0.0,0.0,0.0,0.0,0.0,0.0,0.0,0.0,0.0,0.0,0.0,0.0,16.604,227.487,424.38,552.332,132.742,393.658,352.627,362.832,377.572,51.579,0.0,0.0,0.0,0.0,0.0,0.0,0.0,0.0,0.0,0.0,0.0,0.0,0.0,0.0,20.314,257.833,484.041,630.105,712.15,733.836,697.053,598.164,440.732,189.045,0.0,0.0,0.0,0.0,0.0,0.0,0.0,0.0,0.0,0.0,0.0,0.0,0.0,0.0,0.0,67.295,170.95,181.973,233.764,193.852,328.51399999999995,141.95,183.383,34.471,0.0,0.0,0.0,0.0,0.0,0.0,0.0,0.0,0.0,0.0,0.0,0.0,0.0,0.0,0.0,5.448,4.533,20.326,388.701,148.531,246.583,133.677,49.34,46.072,0.0,0.0,0.0,0.0,0.0,0.0,0.0,0.0,0.0,0.0,0.0,0.0,0.0,0.0,12.659999999999998,3.157,57.443,98.63800000000002,133.971,125.775,264.942,630.982,463.9270000000001,218.911,0.0,0.0,0.0,0.0,0.0,0.0,0.0,0.0,0.0,0.0,0.0,0.0,0.0,0.0,20.098,277.607,513.962,655.542,732.691,753.217,713.128,614.242,349.634,65.967,0.0,0.0,0.0,0.0,0.0,0.0,0.0,0.0,0.0,0.0,0.0,0.0,0.0,0.0,15.905,255.821,481.245,622.039,701.982,721.1290000000001,681.075,588.138,432.915,204.63,0.0,0.0,0.0,0.0,0.0,0.0,0.0,0.0,0.0,0.0,0.0,0.0,0.0,0.0,10.042,230.944,309.907,595.395,669.537,689.36,653.119,556.35,401.584,183.215,0.0,0.0,0.0,0.0,0.0,0.0,0.0,0.0,0.0,0.0,0.0,0.0,0.0,0.0,0.0,48.333,250.353,378.321,519.719,509.419,477.97,368.668,208.737,145.919,0.0,0.0,0.0,0.0,0.0,0.0,0.0,0.0,0.0,0.0,0.0,0.0,0.0,0.0,0.0,46.618,421.895,570.285,650.536,672.493,640.525,194.03,401.309,184.709,0.0,0.0,0.0,0.0,0.0,0.0,0.0,0.0,0.0,0.0,0.0,0.0,0.0,0.0,7.477,215.915,425.518,563.596,641.214,660.363,482.109,350.947,388.404,177.577,0.0,0.0,0.0,0.0,0.0,0.0,0.0,0.0,0.0,0.0,0.0,0.0,0.0,0.0,3.894,88.043,160.881,288.388,449.654,485.762,470.36,381.646,304.39,121.368,0.0,0.0,0.0,0.0,0.0,0.0,0.0,0.0,0.0,0.0,0.0,0.0,0.0,0.0,2.598,184.969,265.443,457.082,606.502,480.014,513.012,363.411,273.913,74.975,0.0,0.0,0.0,0.0,0.0,0.0,0.0,0.0,0.0,0.0,0.0,0.0,0.0,0.0,3.781,197.244,403.9239999999999,545.816,278.725,254.249,431.78,511.421,363.241,162.087,0.0,0.0,0.0,0.0,0.0,0.0,0.0,0.0,0.0,0.0,0.0,0.0,0.0,0.0,2.7139999999999995,191.705,393.847,28.776,174.847,370.306,598.01,169.47700000000003,9.503,0.0,0.0,0.0,0.0,0.0,0.0,0.0,0.0,0.0,0.0,0.0,0.0,0.0,0.0,0.0,0.0,191.909,401.666,540.727,620.817,645.822,614.765,525.996,381.961,176.923,0.0,0.0,0.0,0.0,0.0,0.0,0.0,0.0,0.0,0.0,0.0,0.0,0.0,0.0,0.0,193.585,401.02199999999993,539.602,621.464,645.603,610.129,286.461,104.365,56.621,0.0,0.0,0.0,0.0,0.0,0.0,0.0,0.0,0.0,0.0,0.0,0.0,0.0,0.0,0.0,71.071,179.741,373.914,618.377,648.549,425.797,380.972,291.609,180.071,0.0,0.0,0.0,0.0,0.0,0.0,0.0,0.0,0.0,0.0,0.0,0.0,0.0,0.0,0.0,204.105,423.963,226.553,425.281,394.133,354.965,547.59,403.308,189.942,0.0,0.0,0.0,0.0,0.0,0.0,0.0,0.0,0.0,0.0,0.0,0.0,0.0,0.0,0.0,207.866,443.462,605.931,702.547,735.338,704.597,615.3279999999999,457.154,224.174,0.0,0.0,0.0,0.0,0.0,0.0,0.0,0.0,0.0,0.0,0.0,0.0,0.0,0.0,0.0,214.921,443.411,594.896,557.027,500.71100000000007,489.778,573.575,420.357,200.636,0.0,0.0,0.0,0.0,0.0,0.0,0.0,0.0,0.0,0.0,0.0,0.0,0.0,0.0,0.0,70.688,192.074,374.091,321.669,45.127,112.08,55.828,60.962,51.45600000000001,0.0,0.0,0.0,0.0,0.0,0.0,0.0,0.0,0.0,0.0,0.0,0.0,0.0,0.0,0.0,8.296,41.215,132.579,189.115,84.612,115.854,184.73400000000004,134.687,74.66,0.0,0.0,0.0,0.0,0.0,0.0,0.0,0.0,0.0,0.0,0.0,0.0,0.0,0.0,0.0,207.075,441.171,594.71,682.123,709.651,681.097,594.526,444.675,220.611,0.0,0.0,0.0,0.0,0.0,0.0,0.0,0.0,0.0,0.0,0.0,0.0,0.0,0.0,0.0,206.971,435.208,584.885,669.858,700.03,673.286,589.026,442.656,224.703,0.0,0.0,0.0,0.0,0.0,0.0,0.0,0.0,0.0,0.0,0.0,0.0,0.0,0.0,0.0,191.364,430.99099999999993,594.229,686.936,714.198,686.138,595.662,444.075,219.843,0.0,0.0,0.0,0.0,0.0,0.0,0.0,0.0,0.0,0.0,0.0,0.0,0.0,0.0,0.0,204.64,437.046,590.77,675.258,701.606,670.467,585.338,442.452,223.236,0.0,0.0,0.0,0.0,0.0,0.0,0.0,0.0,0.0,0.0,0.0,0.0,0.0,0.0,0.0,172.591,384.426,534.939,617.543,644.5099999999999,612.803,385.49,392.218,190.605,2.576,0.0,0.0,0.0,0.0,0.0,0.0,0.0,0.0,0.0,0.0,0.0,0.0,0.0,0.0,154.115,369.083,520.649,610.17,640.244,611.94,530.751,143.884,186.227,2.391,0.0,0.0,0.0,0.0,0.0,0.0,0.0,0.0,0.0,0.0,0.0,0.0,0.0,0.0,149.501,103.78700000000002,105.136,76.609,192.698,180.119,226.747,150.316,188.518,2.722,0.0,0.0,0.0,0.0,0.0,0.0,0.0,0.0,0.0,0.0,0.0,0.0,0.0,0.0,78.762,142.452,140.783,139.712,149.762,120.87,102.494,109.754,32.851,0.0,0.0,0.0,0.0,0.0,0.0,0.0,0.0,0.0,0.0,0.0,0.0,0.0,0.0,0.0,202.862,452.879,619.472,714.993,749.3530000000001,722.59,636.2539999999999,483.157,251.449,11.623,0.0,0.0,0.0,0.0,0.0,0.0,0.0,0.0,0.0,0.0,0.0,0.0,0.0,0.0,99.403,323.195,447.197,570.961,615.384,667.616,578.169,429.769,93.259,0.0,0.0,0.0,0.0,0.0,0.0,0.0,0.0,0.0,0.0,0.0,0.0,0.0,0.0,0.0,14.99,8.695,177.28699999999998,168.317,325.165,97.247,160.573,200.081,79.28,0.0,0.0,0.0,0.0,0.0,0.0,0.0,0.0,0.0,0.0,0.0,0.0,0.0,0.0,0.0,3.048,84.035,255.539,220.54,296.955,345.24,135.328,104.486,11.098,0.0,0.0,0.0,0.0,0.0,0.0,0.0,0.0,0.0,0.0,0.0,0.0,0.0,0.0,0.0,24.767,114.862,80.952,194.533,163.773,158.883,213.377,124.74,0.0,0.0,0.0,0.0,0.0,0.0,0.0,0.0,0.0,0.0,0.0,0.0,0.0,0.0,0.0,0.0,49.378,198.106,282.104,373.553,657.231,638.957,564.848,431.86,227.57,11.798,0.0,0.0,0.0,0.0,0.0,0.0,0.0,0.0,0.0,0.0,0.0,0.0,0.0,0.0,82.668,304.28,549.44,527.767,259.487,271.054,281.468,75.962,83.739,0.629,0.0,0.0,0.0,0.0,0.0,0.0,0.0,0.0,0.0,0.0,0.0,0.0,0.0,0.0,3.81,44.054,33.184,86.30800000000002,160.656,141.687,191.763,86.337,109.811,2.296,0.0,0.0,0.0,0.0,0.0,0.0]
...